	.text
	.syntax unified
	.eabi_attribute	67, "2.09"	@ Tag_conformance
	.cpu	cortex-m7
	.eabi_attribute	6, 13	@ Tag_CPU_arch
	.eabi_attribute	7, 77	@ Tag_CPU_arch_profile
	.eabi_attribute	8, 0	@ Tag_ARM_ISA_use
	.eabi_attribute	9, 2	@ Tag_THUMB_ISA_use
	.fpu	fpv5-sp-d16
	.eabi_attribute	27, 1	@ Tag_ABI_HardFP_use
	.eabi_attribute	36, 1	@ Tag_FP_HP_extension
	.eabi_attribute	34, 1	@ Tag_CPU_unaligned_access
	.eabi_attribute	17, 1	@ Tag_ABI_PCS_GOT_use
	.eabi_attribute	20, 2	@ Tag_ABI_FP_denormal
	.eabi_attribute	21, 0	@ Tag_ABI_FP_exceptions
	.eabi_attribute	23, 1	@ Tag_ABI_FP_number_model
	.eabi_attribute	24, 1	@ Tag_ABI_align_needed
	.eabi_attribute	25, 1	@ Tag_ABI_align_preserved
	.eabi_attribute	28, 1	@ Tag_ABI_VFP_args
	.eabi_attribute	38, 1	@ Tag_ABI_FP_16bit_format
	.eabi_attribute	18, 2	@ Tag_ABI_PCS_wchar_t
	.eabi_attribute	26, 1	@ Tag_ABI_enum_size
	.eabi_attribute	14, 0	@ Tag_ABI_PCS_R9_use
	.file	"thermostat.c"
	.file	1 "C:\\Keil\\ARM\\ARMCLANG\\Bin\\..\\include" "stdint.h"
	.file	2 "../Src" "thermostat.c"
	.file	3 "../Inc" "thermostat.h"
	.file	4 "../Drivers/STM32F7xx_HAL_Driver/Inc" "stm32f7xx_hal_gpio.h"
	.file	5 "../Drivers/CMSIS/Device/ST/STM32F7xx/Include" "stm32f746xx.h"
	.section	.text.THERMOSTAT_Init,"ax",%progbits
	.hidden	THERMOSTAT_Init         @ -- Begin function THERMOSTAT_Init
	.globl	THERMOSTAT_Init
	.p2align	2
	.type	THERMOSTAT_Init,%function
	.code	16                      @ @THERMOSTAT_Init
	.thumb_func
THERMOSTAT_Init:
.Lfunc_begin0:
	.loc	2 67 0                  @ ../Src/thermostat.c:67:0
	.fnstart
	.cfi_sections .debug_frame
	.cfi_startproc
@ %bb.0:
	.save	{r4, r5, r6, r7, r8, r9, lr}
	push.w	{r4, r5, r6, r7, r8, r9, lr}
	.cfi_def_cfa_offset 28
	.cfi_offset lr, -4
	.cfi_offset r9, -8
	.cfi_offset r8, -12
	.cfi_offset r7, -16
	.cfi_offset r6, -20
	.cfi_offset r5, -24
	.cfi_offset r4, -28
	.pad	#20
	sub	sp, #20
	.cfi_def_cfa_offset 48
	ldr	r0, __arm_cp.0_0
	ldr	r4, __arm_cp.0_1
.Ltmp0:
	.loc	2 73 2 prologue_end     @ ../Src/thermostat.c:73:2
	movs	r2, #0
	mov.w	r6, #7168
	mov.w	r9, #0
.Ltmp1:
	.loc	2 70 2                  @ ../Src/thermostat.c:70:2
	ldr	r1, [r0]
	orr	r1, r1, #4
	str	r1, [r0]
	ldr	r1, [r0]
	and	r1, r1, #4
.Ltmp2:
	@DEBUG_VALUE: tmpreg <- $r1
	str	r1, [sp]
	ldr	r1, [sp]
.Ltmp3:
	@DEBUG_VALUE: tmpreg <- $r1
	.loc	2 71 2                  @ ../Src/thermostat.c:71:2
	ldr	r1, [r0]
.Ltmp4:
	orr	r1, r1, #8
	str	r1, [r0]
.Ltmp5:
	.loc	2 73 2                  @ ../Src/thermostat.c:73:2
	mov.w	r1, #7168
.Ltmp6:
	.loc	2 71 2                  @ ../Src/thermostat.c:71:2
	ldr	r0, [r0]
	and	r0, r0, #8
.Ltmp7:
	@DEBUG_VALUE: tmpreg <- $r0
	str	r0, [sp]
	ldr	r0, [sp]
.Ltmp8:
	@DEBUG_VALUE: tmpreg <- $r0
	.loc	2 73 2                  @ ../Src/thermostat.c:73:2
	mov	r0, r4
.Ltmp9:
	bl	HAL_GPIO_WritePin
	.loc	2 74 2                  @ ../Src/thermostat.c:74:2
	add.w	r5, r4, #1024
	movs	r1, #20
	movs	r2, #0
	mov.w	r8, #20
	mov	r0, r5
	bl	HAL_GPIO_WritePin
	.loc	2 77 26                 @ ../Src/thermostat.c:77:26
	movs	r7, #1
	.loc	2 80 5                  @ ../Src/thermostat.c:80:5
	mov	r0, r4
	.loc	2 76 25                 @ ../Src/thermostat.c:76:25
	strd	r6, r7, [sp]
	mov	r6, sp
.Ltmp10:
	@DEBUG_VALUE: THERMOSTAT_Init:GPIO_InitStruct <- [$sp+0]
	.loc	2 78 26                 @ ../Src/thermostat.c:78:26
	strd	r7, r9, [sp, #8]
	.loc	2 80 5                  @ ../Src/thermostat.c:80:5
	mov	r1, r6
	bl	HAL_GPIO_Init
	.loc	2 86 5                  @ ../Src/thermostat.c:86:5
	mov	r0, r5
	mov	r1, r6
	.loc	2 82 22                 @ ../Src/thermostat.c:82:22
	strd	r8, r7, [sp]
	.loc	2 84 26                 @ ../Src/thermostat.c:84:26
	strd	r7, r9, [sp, #8]
	.loc	2 86 5                  @ ../Src/thermostat.c:86:5
	bl	HAL_GPIO_Init
	.loc	2 89 24                 @ ../Src/thermostat.c:89:24
	ldr	r0, __arm_cp.0_2
	.loc	2 94 36                 @ ../Src/thermostat.c:94:36
	ldr	r2, __arm_cp.0_3
	.loc	2 92 34                 @ ../Src/thermostat.c:92:34
	mov.w	r1, #13762770
	.loc	2 89 24                 @ ../Src/thermostat.c:89:24
	strd	r9, r1, [r0]
	.loc	2 94 36                 @ ../Src/thermostat.c:94:36
	str	r2, [r0, #8]
	.loc	2 98 1                  @ ../Src/thermostat.c:98:1
	add	sp, #20
.Ltmp11:
	pop.w	{r4, r5, r6, r7, r8, r9, pc}
.Ltmp12:
	.p2align	2
@ %bb.1:
	.loc	2 0 1 is_stmt 0         @ ../Src/thermostat.c:0:1
__arm_cp.0_0:
	.long	1073887280              @ 0x40023830
.Lcpi_end0:
	.size	__arm_cp.0_0, .Lcpi_end0-__arm_cp.0_0
__arm_cp.0_1:
	.long	1073874944              @ 0x40020800
.Lcpi_end1:
	.size	__arm_cp.0_1, .Lcpi_end1-__arm_cp.0_1
__arm_cp.0_2:
	.long	Thermostat_1
.Lcpi_end2:
	.size	__arm_cp.0_2, .Lcpi_end2-__arm_cp.0_2
__arm_cp.0_3:
	.long	51644943                @ 0x3140a0f
.Lcpi_end3:
	.size	__arm_cp.0_3, .Lcpi_end3-__arm_cp.0_3
.Lfunc_end0:
	.size	THERMOSTAT_Init, .Lfunc_end0-THERMOSTAT_Init
	.cfi_endproc
	.cantunwind
	.fnend
                                        @ -- End function
	.section	.text.THERMOSTAT_Service,"ax",%progbits
	.hidden	THERMOSTAT_Service      @ -- Begin function THERMOSTAT_Service
	.globl	THERMOSTAT_Service
	.p2align	2
	.type	THERMOSTAT_Service,%function
	.code	16                      @ @THERMOSTAT_Service
	.thumb_func
THERMOSTAT_Service:
.Lfunc_begin1:
	.loc	2 102 0 is_stmt 1       @ ../Src/thermostat.c:102:0
	.fnstart
	.cfi_startproc
@ %bb.0:
	.save	{r4, r5, r6, lr}
	push	{r4, r5, r6, lr}
	.cfi_def_cfa_offset 16
	.cfi_offset lr, -4
	.cfi_offset r6, -8
	.cfi_offset r5, -12
	.cfi_offset r4, -16
.Ltmp13:
	.loc	2 110 5 prologue_end    @ ../Src/thermostat.c:110:5
	ldr	r1, __arm_cp.1_1
	ldr	r4, __arm_cp.1_0
.Ltmp14:
	.loc	2 110 5 is_stmt 0       @ ../Src/thermostat.c:110:5
	ldrb	r1, [r1]
	ldrh	r0, [r4, #4]
	lsls	r1, r1, #30
	bmi	.LBB1_3
@ %bb.1:
.Ltmp15:
	.loc	2 126 41 is_stmt 1      @ ../Src/thermostat.c:126:41
	ldr	r1, __arm_cp.1_6
	ldrh	r1, [r1]
.Ltmp16:
	.loc	2 126 6 is_stmt 0       @ ../Src/thermostat.c:126:6
	cmp	r0, r1
	beq	.LBB1_6
@ %bb.2:
.Ltmp17:
	.loc	2 129 4 is_stmt 1       @ ../Src/thermostat.c:129:4
	ldr	r0, __arm_cp.1_3
	.loc	2 128 36                @ ../Src/thermostat.c:128:36
	strh	r1, [r4, #4]
	.loc	2 129 4                 @ ../Src/thermostat.c:129:4
	ldr	r2, [r0]
	orr	r2, r2, #1
	str	r2, [r0]
.Ltmp18:
	.loc	2 131 66                @ ../Src/thermostat.c:131:66
	movs	r0, #10
	udiv	r0, r1, r0
	.loc	2 131 7 is_stmt 0       @ ../Src/thermostat.c:131:7
	ldr	r1, __arm_cp.1_4
	ldrb	r2, [r1]
.Ltmp19:
	.loc	2 131 7                 @ ../Src/thermostat.c:131:7
	cmp	r2, r0
	bne	.LBB1_5
	b	.LBB1_6
.Ltmp20:
.LBB1_3:
	.loc	2 112 51 is_stmt 1      @ ../Src/thermostat.c:112:51
	ldr	r1, __arm_cp.1_2
	ldr	r1, [r1, #12]
.Ltmp21:
	.loc	2 112 6 is_stmt 0       @ ../Src/thermostat.c:112:6
	cmp	r1, r0
	beq	.LBB1_6
@ %bb.4:
.Ltmp22:
	.loc	2 115 4 is_stmt 1       @ ../Src/thermostat.c:115:4
	ldr	r0, __arm_cp.1_3
	.loc	2 114 36                @ ../Src/thermostat.c:114:36
	strh	r1, [r4, #4]
	.loc	2 115 4                 @ ../Src/thermostat.c:115:4
	ldr	r2, [r0]
	orr	r2, r2, #1
	str	r2, [r0]
.Ltmp23:
	.loc	2 117 34                @ ../Src/thermostat.c:117:34
	uxth	r0, r1
	.loc	2 117 66 is_stmt 0      @ ../Src/thermostat.c:117:66
	movs	r1, #10
	udiv	r0, r0, r1
	.loc	2 117 7                 @ ../Src/thermostat.c:117:7
	ldr	r1, __arm_cp.1_4
	ldrb	r2, [r1]
.Ltmp24:
	.loc	2 117 7                 @ ../Src/thermostat.c:117:7
	cmp	r0, r2
	beq	.LBB1_6
.Ltmp25:
.LBB1_5:
	.loc	2 0 7                   @ ../Src/thermostat.c:0:7
	strb	r0, [r1]
	ldr	r0, __arm_cp.1_5
	ldr	r1, [r0]
	orr	r1, r1, #4
	str	r1, [r0]
.LBB1_6:
.Ltmp26:
	.loc	2 141 31 is_stmt 1      @ ../Src/thermostat.c:141:31
	ldr	r5, __arm_cp.1_4
	.loc	2 141 18 is_stmt 0      @ ../Src/thermostat.c:141:18
	ldrb	r0, [r4, #2]
	.loc	2 141 31                @ ../Src/thermostat.c:141:31
	ldrb	r1, [r5, #1]
.Ltmp27:
	.loc	2 141 5                 @ ../Src/thermostat.c:141:5
	cmp	r0, r1
	beq	.LBB1_24
@ %bb.7:
.Ltmp28:
	.loc	2 143 7 is_stmt 1       @ ../Src/thermostat.c:143:7
	ldrb	r1, [r5, #2]
	.loc	2 143 22 is_stmt 0      @ ../Src/thermostat.c:143:22
	cmp	r1, #1
	beq	.LBB1_13
@ %bb.8:
	cbnz	r1, .LBB1_24
@ %bb.9:
	.loc	2 143 25                @ ../Src/thermostat.c:143:25
	ldr	r6, __arm_cp.1_3
	ldr	r0, [r6, #4]
.Ltmp29:
	.loc	2 143 6                 @ ../Src/thermostat.c:143:6
	cbnz	r0, .LBB1_24
@ %bb.10:
	.loc	2 0 6                   @ ../Src/thermostat.c:0:6
	ldr	r0, __arm_cp.1_7
.Ltmp30:
	.loc	2 145 4 is_stmt 1       @ ../Src/thermostat.c:145:4
	mov.w	r1, #7168
	movs	r2, #0
	bl	HAL_GPIO_WritePin
	.loc	2 146 4                 @ ../Src/thermostat.c:146:4
	movs	r0, #0
	bl	FAN_SetSpeed
.Ltmp31:
	.loc	2 147 7                 @ ../Src/thermostat.c:147:7
	ldrb	r0, [r5, #1]
.Ltmp32:
	.loc	2 147 7 is_stmt 0       @ ../Src/thermostat.c:147:7
	cbz	r0, .LBB1_12
@ %bb.11:
.Ltmp33:
	.loc	2 147 27                @ ../Src/thermostat.c:147:27
	mov.w	r0, #1560
	str	r0, [r6, #4]
.Ltmp34:
.LBB1_12:
	.loc	2 148 12 is_stmt 1      @ ../Src/thermostat.c:148:12
	ldrb	r0, [r5, #2]
	adds	r0, #1
	strb	r0, [r5, #2]
	b	.LBB1_24
.Ltmp35:
.LBB1_13:
	.loc	2 150 30                @ ../Src/thermostat.c:150:30
	ldr	r6, __arm_cp.1_3
	ldr	r1, [r6, #4]
.Ltmp36:
	.loc	2 150 11 is_stmt 0      @ ../Src/thermostat.c:150:11
	cbnz	r1, .LBB1_24
@ %bb.14:
.Ltmp37:
	.loc	2 152 7 is_stmt 1       @ ../Src/thermostat.c:152:7
	cmp	r0, #3
	beq	.LBB1_18
@ %bb.15:
	cmp	r0, #2
	beq	.LBB1_19
@ %bb.16:
	cmp	r0, #1
	bne	.LBB1_21
@ %bb.17:
	.loc	2 0 7 is_stmt 0         @ ../Src/thermostat.c:0:7
	ldr	r0, __arm_cp.1_7
.Ltmp38:
	.loc	2 154 5 is_stmt 1       @ ../Src/thermostat.c:154:5
	mov.w	r1, #1024
	movs	r2, #1
	bl	HAL_GPIO_WritePin
	.loc	2 155 5                 @ ../Src/thermostat.c:155:5
	movs	r0, #52
	b	.LBB1_20
.Ltmp39:
.LBB1_18:
	.loc	2 0 5 is_stmt 0         @ ../Src/thermostat.c:0:5
	ldr	r0, __arm_cp.1_7
.Ltmp40:
	.loc	2 164 5 is_stmt 1       @ ../Src/thermostat.c:164:5
	mov.w	r1, #4096
	movs	r2, #1
	bl	HAL_GPIO_WritePin
	.loc	2 165 5                 @ ../Src/thermostat.c:165:5
	movs	r0, #42
	b	.LBB1_20
.Ltmp41:
.LBB1_19:
	.loc	2 0 5 is_stmt 0         @ ../Src/thermostat.c:0:5
	ldr	r0, __arm_cp.1_7
.Ltmp42:
	.loc	2 159 5 is_stmt 1       @ ../Src/thermostat.c:159:5
	mov.w	r1, #2048
	movs	r2, #1
	bl	HAL_GPIO_WritePin
	.loc	2 160 5                 @ ../Src/thermostat.c:160:5
	movs	r0, #47
.Ltmp43:
.LBB1_20:
	.loc	2 0 5 is_stmt 0         @ ../Src/thermostat.c:0:5
	bl	FAN_SetSpeed
.LBB1_21:
.Ltmp44:
	.loc	2 168 20 is_stmt 1      @ ../Src/thermostat.c:168:20
	ldrb	r0, [r4, #2]
.Ltmp45:
	.loc	2 168 7 is_stmt 0       @ ../Src/thermostat.c:168:7
	cbz	r0, .LBB1_23
@ %bb.22:
.Ltmp46:
	.loc	2 168 36                @ ../Src/thermostat.c:168:36
	mov.w	r1, #1560
	str	r1, [r6, #4]
.Ltmp47:
.LBB1_23:
	.loc	2 170 13 is_stmt 1      @ ../Src/thermostat.c:170:13
	movs	r1, #0
	strb	r1, [r5, #2]
	.loc	2 169 18                @ ../Src/thermostat.c:169:18
	strb	r0, [r5, #1]
.Ltmp48:
.LBB1_24:
	.loc	2 176 18                @ ../Src/thermostat.c:176:18
	ldrb	r0, [r4]
	.loc	2 176 40 is_stmt 0      @ ../Src/thermostat.c:176:40
	ldrb	r1, [r4, #3]
.Ltmp49:
	.loc	2 176 5                 @ ../Src/thermostat.c:176:5
	cmp	r0, r1
	beq	.LBB1_27
@ %bb.25:
.Ltmp50:
	.loc	2 178 6 is_stmt 1       @ ../Src/thermostat.c:178:6
	ldr	r5, __arm_cp.1_3
	ldr	r0, [r5, #8]
.Ltmp51:
	.loc	2 178 6 is_stmt 0       @ ../Src/thermostat.c:178:6
	cmp	r0, #0
.Ltmp52:
	.loc	2 189 18 is_stmt 1      @ ../Src/thermostat.c:189:18
	mov	r0, r1
.Ltmp53:
	.loc	2 178 6                 @ ../Src/thermostat.c:178:6
	bne	.LBB1_27
@ %bb.26:
	.loc	2 0 6 is_stmt 0         @ ../Src/thermostat.c:0:6
	ldr	r0, __arm_cp.1_7
.Ltmp54:
	.loc	2 180 7 is_stmt 1       @ ../Src/thermostat.c:180:7
	cmp	r1, #1
.Ltmp55:
	.loc	2 181 9                 @ ../Src/thermostat.c:181:9
	mov.w	r1, #4
	ite	ne
	movne	r2, #0
	.loc	2 180 66                @ ../Src/thermostat.c:180:66
	moveq	r2, #1
	.loc	2 181 9                 @ ../Src/thermostat.c:181:9
	add.w	r0, r0, #1024
	bl	HAL_GPIO_WritePin
.Ltmp56:
	.loc	2 182 4                 @ ../Src/thermostat.c:182:4
	movw	r0, #5678
	str	r0, [r5, #8]
	.loc	2 183 38                @ ../Src/thermostat.c:183:38
	ldrb	r0, [r4, #3]
	.loc	2 183 23 is_stmt 0      @ ../Src/thermostat.c:183:23
	strb	r0, [r4]
.Ltmp57:
.LBB1_27:
	.loc	2 189 5 is_stmt 1       @ ../Src/thermostat.c:189:5
	cmp	r0, #2
	beq	.LBB1_31
@ %bb.28:
	cmp	r0, #1
	beq	.LBB1_34
@ %bb.29:
	cmp	r0, #0
	bne.w	.LBB1_71
@ %bb.30:
	.loc	2 0 5 is_stmt 0         @ ../Src/thermostat.c:0:5
	movs	r0, #0
.Ltmp58:
	.loc	2 193 3 is_stmt 1       @ ../Src/thermostat.c:193:3
	mov.w	r1, #7168
	movs	r2, #0
	.loc	2 192 26                @ ../Src/thermostat.c:192:26
	strb	r0, [r4, #2]
	.loc	2 191 22                @ ../Src/thermostat.c:191:22
	strb	r0, [r4]
	ldr	r0, __arm_cp.1_7
	.loc	2 193 3                 @ ../Src/thermostat.c:193:3
	bl	HAL_GPIO_WritePin
	.loc	2 194 3                 @ ../Src/thermostat.c:194:3
	movs	r0, #0
	pop.w	{r4, r5, r6, lr}
	b	FAN_SetSpeed
.Ltmp59:
.LBB1_31:
	.loc	2 263 19                @ ../Src/thermostat.c:263:19
	ldrb	r0, [r4, #1]
.Ltmp60:
	.loc	2 263 6 is_stmt 0       @ ../Src/thermostat.c:263:6
	cbz	r0, .LBB1_37
@ %bb.32:
.Ltmp61:
	.loc	2 316 56 is_stmt 1      @ ../Src/thermostat.c:316:56
	ldrh	r1, [r4, #6]
	.loc	2 316 21 is_stmt 0      @ ../Src/thermostat.c:316:21
	ldrh	r2, [r4, #4]
.Ltmp62:
	.loc	2 316 8                 @ ../Src/thermostat.c:316:8
	cmp	r2, r1
	bhs.w	.LBB1_69
@ %bb.33:
.Ltmp63:
	.loc	2 321 38 is_stmt 1      @ ../Src/thermostat.c:321:38
	ldrb	r3, [r4, #8]
	.loc	2 321 36 is_stmt 0      @ ../Src/thermostat.c:321:36
	subs	r1, r1, r3
.Ltmp64:
	.loc	2 320 12 is_stmt 1      @ ../Src/thermostat.c:320:12
	cmp	r1, r2
	bgt.w	.LBB1_70
	b	.LBB1_71
.Ltmp65:
.LBB1_34:
	.loc	2 198 19                @ ../Src/thermostat.c:198:19
	ldrb	r0, [r4, #1]
.Ltmp66:
	.loc	2 198 6 is_stmt 0       @ ../Src/thermostat.c:198:6
	cbz	r0, .LBB1_42
@ %bb.35:
.Ltmp67:
	.loc	2 250 56 is_stmt 1      @ ../Src/thermostat.c:250:56
	ldrh	r1, [r4, #6]
	.loc	2 250 21 is_stmt 0      @ ../Src/thermostat.c:250:21
	ldrh	r2, [r4, #4]
.Ltmp68:
	.loc	2 250 8                 @ ../Src/thermostat.c:250:8
	cmp	r2, r1
	bls	.LBB1_69
@ %bb.36:
.Ltmp69:
	.loc	2 255 38 is_stmt 1      @ ../Src/thermostat.c:255:38
	ldrb	r3, [r4, #8]
	.loc	2 255 36 is_stmt 0      @ ../Src/thermostat.c:255:36
	add	r1, r3
.Ltmp70:
	.loc	2 254 12 is_stmt 1      @ ../Src/thermostat.c:254:12
	cmp	r1, r2
	it	lo
	strblo	r0, [r4, #2]
.Ltmp71:
	.loc	2 327 1                 @ ../Src/thermostat.c:327:1
	pop	{r4, r5, r6, pc}
.LBB1_37:
.Ltmp72:
	.loc	2 265 21                @ ../Src/thermostat.c:265:21
	ldrb	r0, [r4, #2]
	.loc	2 265 37 is_stmt 0      @ ../Src/thermostat.c:265:37
	cmp	r0, #3
	bhi	.LBB1_71
@ %bb.38:
	.loc	2 0 37                  @ ../Src/thermostat.c:0:37
.LCPI1_8:
	tbb	[pc, r0]
@ %bb.39:
.LJTI1_0:
	.byte	(.LBB1_40-(.LCPI1_8+4))/2
	.byte	(.LBB1_57-(.LCPI1_8+4))/2
	.byte	(.LBB1_47-(.LCPI1_8+4))/2
	.byte	(.LBB1_48-(.LCPI1_8+4))/2
	.p2align	1
.LBB1_40:
	.loc	2 268 5 is_stmt 1       @ ../Src/thermostat.c:268:5
	ldrb	r1, [r4, #9]
	.loc	2 267 19                @ ../Src/thermostat.c:267:19
	ldrh	r0, [r4, #6]
	.loc	2 267 35 is_stmt 0      @ ../Src/thermostat.c:267:35
	subs	r2, r0, r1
	.loc	2 266 19 is_stmt 1      @ ../Src/thermostat.c:266:19
	ldrh	r1, [r4, #4]
.Ltmp73:
	.loc	2 265 7                 @ ../Src/thermostat.c:265:7
	cmp	r2, r1
	ble	.LBB1_71
@ %bb.41:
.Ltmp74:
	.loc	2 270 28                @ ../Src/thermostat.c:270:28
	movs	r2, #1
	strb	r2, [r4, #2]
	b	.LBB1_58
.Ltmp75:
.LBB1_42:
	.loc	2 200 21                @ ../Src/thermostat.c:200:21
	ldrb	r0, [r4, #2]
	.loc	2 200 37 is_stmt 0      @ ../Src/thermostat.c:200:37
	cmp	r0, #3
	bhi	.LBB1_71
@ %bb.43:
	.loc	2 0 37                  @ ../Src/thermostat.c:0:37
.LCPI1_9:
	tbb	[pc, r0]
@ %bb.44:
.LJTI1_1:
	.byte	(.LBB1_45-(.LCPI1_9+4))/2
	.byte	(.LBB1_49-(.LCPI1_9+4))/2
	.byte	(.LBB1_52-(.LCPI1_9+4))/2
	.byte	(.LBB1_55-(.LCPI1_9+4))/2
	.p2align	1
.LBB1_45:
	.loc	2 202 19 is_stmt 1      @ ../Src/thermostat.c:202:19
	ldrh	r0, [r4, #6]
	.loc	2 203 5                 @ ../Src/thermostat.c:203:5
	ldrb	r1, [r4, #9]
	.loc	2 202 35                @ ../Src/thermostat.c:202:35
	adds	r2, r1, r0
	.loc	2 201 19                @ ../Src/thermostat.c:201:19
	ldrh	r1, [r4, #4]
.Ltmp76:
	.loc	2 200 7                 @ ../Src/thermostat.c:200:7
	cmp	r2, r1
	bhs	.LBB1_71
@ %bb.46:
.Ltmp77:
	.loc	2 205 28                @ ../Src/thermostat.c:205:28
	movs	r2, #1
	strb	r2, [r4, #2]
	b	.LBB1_50
.Ltmp78:
.LBB1_47:
	.loc	2 293 19                @ ../Src/thermostat.c:293:19
	ldrb	r2, [r4, #10]
	.loc	2 291 20                @ ../Src/thermostat.c:291:20
	ldrh	r0, [r4, #6]
	.loc	2 290 22                @ ../Src/thermostat.c:290:22
	ldrh	r1, [r4, #4]
	b	.LBB1_60
.Ltmp79:
.LBB1_48:
	.loc	2 308 5                 @ ../Src/thermostat.c:308:5
	ldrb	r2, [r4, #10]
	.loc	2 307 6                 @ ../Src/thermostat.c:307:6
	ldrh	r0, [r4, #6]
	.loc	2 306 6                 @ ../Src/thermostat.c:306:6
	ldrh	r1, [r4, #4]
	b	.LBB1_62
.Ltmp80:
.LBB1_49:
	.loc	2 211 20                @ ../Src/thermostat.c:211:20
	ldrh	r0, [r4, #6]
	.loc	2 210 22                @ ../Src/thermostat.c:210:22
	ldrh	r1, [r4, #4]
.LBB1_50:
	.loc	2 212 19                @ ../Src/thermostat.c:212:19
	ldrb	r2, [r4, #10]
	.loc	2 211 36                @ ../Src/thermostat.c:211:36
	adds	r3, r2, r0
.Ltmp81:
	.loc	2 210 9                 @ ../Src/thermostat.c:210:9
	cmp	r3, r1
	bhs	.LBB1_67
@ %bb.51:
.Ltmp82:
	.loc	2 214 29                @ ../Src/thermostat.c:214:29
	movs	r3, #2
	strb	r3, [r4, #2]
	b	.LBB1_53
.Ltmp83:
.LBB1_52:
	.loc	2 228 19                @ ../Src/thermostat.c:228:19
	ldrb	r2, [r4, #10]
	.loc	2 226 20                @ ../Src/thermostat.c:226:20
	ldrh	r0, [r4, #6]
	.loc	2 225 22                @ ../Src/thermostat.c:225:22
	ldrh	r1, [r4, #4]
.LBB1_53:
	.loc	2 227 6                 @ ../Src/thermostat.c:227:6
	ldrb	r3, [r4, #9]
	.loc	2 226 36                @ ../Src/thermostat.c:226:36
	add	r3, r0
	.loc	2 227 38                @ ../Src/thermostat.c:227:38
	adds	r6, r3, r2
.Ltmp84:
	.loc	2 225 9                 @ ../Src/thermostat.c:225:9
	cmp	r6, r1
	bhs	.LBB1_64
@ %bb.54:
.Ltmp85:
	.loc	2 230 29                @ ../Src/thermostat.c:230:29
	movs	r3, #3
	strb	r3, [r4, #2]
	b	.LBB1_56
.Ltmp86:
.LBB1_55:
	.loc	2 243 5                 @ ../Src/thermostat.c:243:5
	ldrb	r2, [r4, #10]
	.loc	2 242 6                 @ ../Src/thermostat.c:242:6
	ldrh	r0, [r4, #6]
	.loc	2 241 6                 @ ../Src/thermostat.c:241:6
	ldrh	r1, [r4, #4]
.LBB1_56:
	.loc	2 242 35                @ ../Src/thermostat.c:242:35
	add	r0, r2
.Ltmp87:
	.loc	2 240 7                 @ ../Src/thermostat.c:240:7
	cmp	r0, r1
	bhs	.LBB1_63
	b	.LBB1_71
.Ltmp88:
.LBB1_57:
	.loc	2 276 20                @ ../Src/thermostat.c:276:20
	ldrh	r0, [r4, #6]
	.loc	2 275 22                @ ../Src/thermostat.c:275:22
	ldrh	r1, [r4, #4]
.LBB1_58:
	.loc	2 277 19                @ ../Src/thermostat.c:277:19
	ldrb	r2, [r4, #10]
	.loc	2 276 36                @ ../Src/thermostat.c:276:36
	subs	r3, r0, r2
.Ltmp89:
	.loc	2 275 9                 @ ../Src/thermostat.c:275:9
	cmp	r3, r1
	ble	.LBB1_68
@ %bb.59:
.Ltmp90:
	.loc	2 279 29                @ ../Src/thermostat.c:279:29
	movs	r3, #2
	strb	r3, [r4, #2]
.Ltmp91:
.LBB1_60:
	.loc	2 292 6                 @ ../Src/thermostat.c:292:6
	ldrb	r3, [r4, #9]
	.loc	2 291 36                @ ../Src/thermostat.c:291:36
	subs	r3, r0, r3
	.loc	2 292 38                @ ../Src/thermostat.c:292:38
	subs	r6, r3, r2
.Ltmp92:
	.loc	2 290 9                 @ ../Src/thermostat.c:290:9
	cmp	r6, r1
	ble	.LBB1_65
@ %bb.61:
.Ltmp93:
	.loc	2 295 29                @ ../Src/thermostat.c:295:29
	movs	r3, #3
	strb	r3, [r4, #2]
.Ltmp94:
.LBB1_62:
	.loc	2 307 35                @ ../Src/thermostat.c:307:35
	subs	r0, r0, r2
.Ltmp95:
	.loc	2 305 7                 @ ../Src/thermostat.c:305:7
	cmp	r0, r1
	bgt	.LBB1_71
.Ltmp96:
.LBB1_63:
	.loc	2 0 7 is_stmt 0         @ ../Src/thermostat.c:0:7
	movs	r0, #2
	b	.LBB1_70
.LBB1_64:
.Ltmp97:
	.loc	2 232 14 is_stmt 1      @ ../Src/thermostat.c:232:14
	cmp	r3, r1
	bhs	.LBB1_66
	b	.LBB1_71
.Ltmp98:
.LBB1_65:
	.loc	2 297 14                @ ../Src/thermostat.c:297:14
	cmp	r3, r1
	bgt	.LBB1_71
.Ltmp99:
.LBB1_66:
	.loc	2 0 14 is_stmt 0        @ ../Src/thermostat.c:0:14
	movs	r0, #1
	b	.LBB1_70
.LBB1_67:
.Ltmp100:
	.loc	2 216 13 is_stmt 1      @ ../Src/thermostat.c:216:13
	cmp	r1, r0
	bls	.LBB1_69
	b	.LBB1_71
.Ltmp101:
.LBB1_68:
	.loc	2 281 13                @ ../Src/thermostat.c:281:13
	cmp	r1, r0
	blo	.LBB1_71
.Ltmp102:
.LBB1_69:
	.loc	2 0 13 is_stmt 0        @ ../Src/thermostat.c:0:13
	movs	r0, #0
.LBB1_70:
	strb	r0, [r4, #2]
.LBB1_71:
	.loc	2 327 1 is_stmt 1       @ ../Src/thermostat.c:327:1
	pop	{r4, r5, r6, pc}
.Ltmp103:
	.p2align	2
@ %bb.72:
	.loc	2 0 1 is_stmt 0         @ ../Src/thermostat.c:0:1
__arm_cp.1_0:
	.long	Thermostat_1
.Lcpi_end4:
	.size	__arm_cp.1_0, .Lcpi_end4-__arm_cp.1_0
__arm_cp.1_1:
	.long	onewire_flags
.Lcpi_end5:
	.size	__arm_cp.1_1, .Lcpi_end5-__arm_cp.1_1
__arm_cp.1_2:
	.long	ds18b20_1
.Lcpi_end6:
	.size	__arm_cp.1_2, .Lcpi_end6-__arm_cp.1_2
__arm_cp.1_3:
	.long	.L_MergedGlobals
.Lcpi_end7:
	.size	__arm_cp.1_3, .Lcpi_end7-__arm_cp.1_3
__arm_cp.1_4:
	.long	.L_MergedGlobals.1
.Lcpi_end8:
	.size	__arm_cp.1_4, .Lcpi_end8-__arm_cp.1_4
__arm_cp.1_5:
	.long	display_flags
.Lcpi_end9:
	.size	__arm_cp.1_5, .Lcpi_end9-__arm_cp.1_5
__arm_cp.1_6:
	.long	ntc_temperature
.Lcpi_end10:
	.size	__arm_cp.1_6, .Lcpi_end10-__arm_cp.1_6
__arm_cp.1_7:
	.long	1073874944              @ 0x40020800
.Lcpi_end11:
	.size	__arm_cp.1_7, .Lcpi_end11-__arm_cp.1_7
.Lfunc_end1:
	.size	THERMOSTAT_Service, .Lfunc_end1-THERMOSTAT_Service
	.cfi_endproc
	.cantunwind
	.fnend
                                        @ -- End function
	.hidden	Thermostat_1            @ @Thermostat_1
	.type	Thermostat_1,%object
	.section	.bss.Thermostat_1,"aw",%nobits
	.globl	Thermostat_1
	.p2align	2
Thermostat_1:
	.zero	12
	.size	Thermostat_1, 12

	.hidden	thermostat_timer        @ @thermostat_timer
	.type	thermostat_timer,%object
	.section	.bss.thermostat_timer,"aw",%nobits
	.globl	thermostat_timer
	.p2align	2
thermostat_timer:
	.long	0                       @ 0x0
	.size	thermostat_timer, 4

	.type	.L_MergedGlobals,%object @ @_MergedGlobals
	.section	.bss..L_MergedGlobals,"aw",%nobits
	.p2align	2
.L_MergedGlobals:
	.zero	12
	.size	.L_MergedGlobals, 12

	.type	.L_MergedGlobals.1,%object @ @_MergedGlobals.1
	.section	.bss..L_MergedGlobals.1,"aw",%nobits
	.p2align	2
.L_MergedGlobals.1:
	.zero	3
	.size	.L_MergedGlobals.1, 3

	.section	.debug_str,"MS",%progbits,1
.Linfo_string0:
	.asciz	"Component: ARM Compiler 6.10.1 Tool: armclang [5d143200]" @ string offset=0
.Linfo_string1:
	.asciz	"../Src\\thermostat.c"  @ string offset=57
.Linfo_string2:
	.asciz	"F:\\SkyDrive\\OtvoreniProjekti\\HotelSaplast\\fw\\RoomThermostat\\DE-170518\\MDK-ARM" @ string offset=77
.Linfo_string3:
	.asciz	"old_actual_temperature" @ string offset=155
.Linfo_string4:
	.asciz	"unsigned char"         @ string offset=178
.Linfo_string5:
	.asciz	"uint8_t"               @ string offset=192
.Linfo_string6:
	.asciz	"old_fan_speed"         @ string offset=200
.Linfo_string7:
	.asciz	"fan_pcnt"              @ string offset=214
.Linfo_string8:
	.asciz	"Thermostat_1"          @ string offset=223
.Linfo_string9:
	.asciz	"valve"                 @ string offset=236
.Linfo_string10:
	.asciz	"fan_mode"              @ string offset=242
.Linfo_string11:
	.asciz	"fan_speed"             @ string offset=251
.Linfo_string12:
	.asciz	"ctrl_mode"             @ string offset=261
.Linfo_string13:
	.asciz	"actual_temperature"    @ string offset=271
.Linfo_string14:
	.asciz	"unsigned short"        @ string offset=290
.Linfo_string15:
	.asciz	"uint16_t"              @ string offset=305
.Linfo_string16:
	.asciz	"set_temperature"       @ string offset=314
.Linfo_string17:
	.asciz	"set_temperature_diff"  @ string offset=330
.Linfo_string18:
	.asciz	"fan_low_speed_band"    @ string offset=351
.Linfo_string19:
	.asciz	"fan_middle_speed_band" @ string offset=370
.Linfo_string20:
	.asciz	"fan_speed_diff"        @ string offset=392
.Linfo_string21:
	.asciz	"THERMOSTAT_TypeDef"    @ string offset=407
.Linfo_string22:
	.asciz	"thermostat_timer"      @ string offset=426
.Linfo_string23:
	.asciz	"unsigned int"          @ string offset=443
.Linfo_string24:
	.asciz	"uint32_t"              @ string offset=456
.Linfo_string25:
	.asciz	"thermostat_fan_timer"  @ string offset=465
.Linfo_string26:
	.asciz	"thermostat_valve_timer" @ string offset=486
.Linfo_string27:
	.asciz	"thermostat_flags"      @ string offset=509
.Linfo_string28:
	.asciz	"GPIO_PIN_RESET"        @ string offset=526
.Linfo_string29:
	.asciz	"GPIO_PIN_SET"          @ string offset=541
.Linfo_string30:
	.asciz	"CR"                    @ string offset=554
.Linfo_string31:
	.asciz	"PLLCFGR"               @ string offset=557
.Linfo_string32:
	.asciz	"CFGR"                  @ string offset=565
.Linfo_string33:
	.asciz	"CIR"                   @ string offset=570
.Linfo_string34:
	.asciz	"AHB1RSTR"              @ string offset=574
.Linfo_string35:
	.asciz	"AHB2RSTR"              @ string offset=583
.Linfo_string36:
	.asciz	"AHB3RSTR"              @ string offset=592
.Linfo_string37:
	.asciz	"RESERVED0"             @ string offset=601
.Linfo_string38:
	.asciz	"APB1RSTR"              @ string offset=611
.Linfo_string39:
	.asciz	"APB2RSTR"              @ string offset=620
.Linfo_string40:
	.asciz	"RESERVED1"             @ string offset=629
.Linfo_string41:
	.asciz	"sizetype"              @ string offset=639
.Linfo_string42:
	.asciz	"AHB1ENR"               @ string offset=648
.Linfo_string43:
	.asciz	"AHB2ENR"               @ string offset=656
.Linfo_string44:
	.asciz	"AHB3ENR"               @ string offset=664
.Linfo_string45:
	.asciz	"RESERVED2"             @ string offset=672
.Linfo_string46:
	.asciz	"APB1ENR"               @ string offset=682
.Linfo_string47:
	.asciz	"APB2ENR"               @ string offset=690
.Linfo_string48:
	.asciz	"RESERVED3"             @ string offset=698
.Linfo_string49:
	.asciz	"AHB1LPENR"             @ string offset=708
.Linfo_string50:
	.asciz	"AHB2LPENR"             @ string offset=718
.Linfo_string51:
	.asciz	"AHB3LPENR"             @ string offset=728
.Linfo_string52:
	.asciz	"RESERVED4"             @ string offset=738
.Linfo_string53:
	.asciz	"APB1LPENR"             @ string offset=748
.Linfo_string54:
	.asciz	"APB2LPENR"             @ string offset=758
.Linfo_string55:
	.asciz	"RESERVED5"             @ string offset=768
.Linfo_string56:
	.asciz	"BDCR"                  @ string offset=778
.Linfo_string57:
	.asciz	"CSR"                   @ string offset=783
.Linfo_string58:
	.asciz	"RESERVED6"             @ string offset=787
.Linfo_string59:
	.asciz	"SSCGR"                 @ string offset=797
.Linfo_string60:
	.asciz	"PLLI2SCFGR"            @ string offset=803
.Linfo_string61:
	.asciz	"PLLSAICFGR"            @ string offset=814
.Linfo_string62:
	.asciz	"DCKCFGR1"              @ string offset=825
.Linfo_string63:
	.asciz	"DCKCFGR2"              @ string offset=834
.Linfo_string64:
	.asciz	"RCC_TypeDef"           @ string offset=843
.Linfo_string65:
	.asciz	"MODER"                 @ string offset=855
.Linfo_string66:
	.asciz	"OTYPER"                @ string offset=861
.Linfo_string67:
	.asciz	"OSPEEDR"               @ string offset=868
.Linfo_string68:
	.asciz	"PUPDR"                 @ string offset=876
.Linfo_string69:
	.asciz	"IDR"                   @ string offset=882
.Linfo_string70:
	.asciz	"ODR"                   @ string offset=886
.Linfo_string71:
	.asciz	"BSRR"                  @ string offset=890
.Linfo_string72:
	.asciz	"LCKR"                  @ string offset=895
.Linfo_string73:
	.asciz	"AFR"                   @ string offset=900
.Linfo_string74:
	.asciz	"GPIO_TypeDef"          @ string offset=904
.Linfo_string75:
	.asciz	"THERMOSTAT_Init"       @ string offset=917
.Linfo_string76:
	.asciz	"THERMOSTAT_Service"    @ string offset=933
.Linfo_string77:
	.asciz	"tmpreg"                @ string offset=952
.Linfo_string78:
	.asciz	"GPIO_InitStruct"       @ string offset=959
.Linfo_string79:
	.asciz	"Pin"                   @ string offset=975
.Linfo_string80:
	.asciz	"Mode"                  @ string offset=979
.Linfo_string81:
	.asciz	"Pull"                  @ string offset=984
.Linfo_string82:
	.asciz	"Speed"                 @ string offset=989
.Linfo_string83:
	.asciz	"Alternate"             @ string offset=995
.Linfo_string84:
	.asciz	"GPIO_InitTypeDef"      @ string offset=1005
	.section	.debug_loc,"",%progbits
.Ldebug_loc0:
	.long	.Ltmp2
	.long	.Ltmp4
	.short	1                       @ Loc expr size
	.byte	81                      @ DW_OP_reg1
	.long	0
	.long	0
.Ldebug_loc1:
	.long	.Ltmp7
	.long	.Ltmp9
	.short	1                       @ Loc expr size
	.byte	80                      @ DW_OP_reg0
	.long	0
	.long	0
.Ldebug_loc2:
	.long	.Ltmp10
	.long	.Ltmp11
	.short	2                       @ Loc expr size
	.byte	125                     @ DW_OP_breg13
	.byte	0                       @ 0
	.long	0
	.long	0
	.section	.debug_abbrev,"",%progbits
	.byte	1                       @ Abbreviation Code
	.byte	17                      @ DW_TAG_compile_unit
	.byte	1                       @ DW_CHILDREN_yes
	.byte	37                      @ DW_AT_producer
	.byte	14                      @ DW_FORM_strp
	.byte	19                      @ DW_AT_language
	.byte	5                       @ DW_FORM_data2
	.byte	3                       @ DW_AT_name
	.byte	14                      @ DW_FORM_strp
	.byte	16                      @ DW_AT_stmt_list
	.byte	6                       @ DW_FORM_data4
	.byte	27                      @ DW_AT_comp_dir
	.byte	14                      @ DW_FORM_strp
	.ascii	"\264B"                 @ DW_AT_GNU_pubnames
	.byte	12                      @ DW_FORM_flag
	.byte	17                      @ DW_AT_low_pc
	.byte	1                       @ DW_FORM_addr
	.byte	85                      @ DW_AT_ranges
	.byte	6                       @ DW_FORM_data4
	.byte	0                       @ EOM(1)
	.byte	0                       @ EOM(2)
	.byte	2                       @ Abbreviation Code
	.byte	46                      @ DW_TAG_subprogram
	.byte	1                       @ DW_CHILDREN_yes
	.byte	17                      @ DW_AT_low_pc
	.byte	1                       @ DW_FORM_addr
	.byte	18                      @ DW_AT_high_pc
	.byte	1                       @ DW_FORM_addr
	.byte	64                      @ DW_AT_frame_base
	.byte	10                      @ DW_FORM_block1
	.byte	3                       @ DW_AT_name
	.byte	14                      @ DW_FORM_strp
	.byte	58                      @ DW_AT_decl_file
	.byte	11                      @ DW_FORM_data1
	.byte	59                      @ DW_AT_decl_line
	.byte	11                      @ DW_FORM_data1
	.byte	39                      @ DW_AT_prototyped
	.byte	12                      @ DW_FORM_flag
	.byte	63                      @ DW_AT_external
	.byte	12                      @ DW_FORM_flag
	.byte	0                       @ EOM(1)
	.byte	0                       @ EOM(2)
	.byte	3                       @ Abbreviation Code
	.byte	52                      @ DW_TAG_variable
	.byte	0                       @ DW_CHILDREN_no
	.byte	3                       @ DW_AT_name
	.byte	14                      @ DW_FORM_strp
	.byte	73                      @ DW_AT_type
	.byte	19                      @ DW_FORM_ref4
	.byte	58                      @ DW_AT_decl_file
	.byte	11                      @ DW_FORM_data1
	.byte	59                      @ DW_AT_decl_line
	.byte	11                      @ DW_FORM_data1
	.byte	2                       @ DW_AT_location
	.byte	10                      @ DW_FORM_block1
	.byte	0                       @ EOM(1)
	.byte	0                       @ EOM(2)
	.byte	4                       @ Abbreviation Code
	.byte	22                      @ DW_TAG_typedef
	.byte	0                       @ DW_CHILDREN_no
	.byte	73                      @ DW_AT_type
	.byte	19                      @ DW_FORM_ref4
	.byte	3                       @ DW_AT_name
	.byte	14                      @ DW_FORM_strp
	.byte	58                      @ DW_AT_decl_file
	.byte	11                      @ DW_FORM_data1
	.byte	59                      @ DW_AT_decl_line
	.byte	11                      @ DW_FORM_data1
	.byte	0                       @ EOM(1)
	.byte	0                       @ EOM(2)
	.byte	5                       @ Abbreviation Code
	.byte	36                      @ DW_TAG_base_type
	.byte	0                       @ DW_CHILDREN_no
	.byte	3                       @ DW_AT_name
	.byte	14                      @ DW_FORM_strp
	.byte	62                      @ DW_AT_encoding
	.byte	11                      @ DW_FORM_data1
	.byte	11                      @ DW_AT_byte_size
	.byte	11                      @ DW_FORM_data1
	.byte	0                       @ EOM(1)
	.byte	0                       @ EOM(2)
	.byte	6                       @ Abbreviation Code
	.byte	52                      @ DW_TAG_variable
	.byte	0                       @ DW_CHILDREN_no
	.byte	3                       @ DW_AT_name
	.byte	14                      @ DW_FORM_strp
	.byte	73                      @ DW_AT_type
	.byte	19                      @ DW_FORM_ref4
	.byte	63                      @ DW_AT_external
	.byte	12                      @ DW_FORM_flag
	.byte	58                      @ DW_AT_decl_file
	.byte	11                      @ DW_FORM_data1
	.byte	59                      @ DW_AT_decl_line
	.byte	11                      @ DW_FORM_data1
	.byte	2                       @ DW_AT_location
	.byte	10                      @ DW_FORM_block1
	.byte	0                       @ EOM(1)
	.byte	0                       @ EOM(2)
	.byte	7                       @ Abbreviation Code
	.byte	19                      @ DW_TAG_structure_type
	.byte	1                       @ DW_CHILDREN_yes
	.byte	11                      @ DW_AT_byte_size
	.byte	11                      @ DW_FORM_data1
	.byte	58                      @ DW_AT_decl_file
	.byte	11                      @ DW_FORM_data1
	.byte	59                      @ DW_AT_decl_line
	.byte	11                      @ DW_FORM_data1
	.byte	0                       @ EOM(1)
	.byte	0                       @ EOM(2)
	.byte	8                       @ Abbreviation Code
	.byte	13                      @ DW_TAG_member
	.byte	0                       @ DW_CHILDREN_no
	.byte	3                       @ DW_AT_name
	.byte	14                      @ DW_FORM_strp
	.byte	73                      @ DW_AT_type
	.byte	19                      @ DW_FORM_ref4
	.byte	58                      @ DW_AT_decl_file
	.byte	11                      @ DW_FORM_data1
	.byte	59                      @ DW_AT_decl_line
	.byte	11                      @ DW_FORM_data1
	.byte	56                      @ DW_AT_data_member_location
	.byte	11                      @ DW_FORM_data1
	.byte	0                       @ EOM(1)
	.byte	0                       @ EOM(2)
	.byte	9                       @ Abbreviation Code
	.byte	53                      @ DW_TAG_volatile_type
	.byte	0                       @ DW_CHILDREN_no
	.byte	73                      @ DW_AT_type
	.byte	19                      @ DW_FORM_ref4
	.byte	0                       @ EOM(1)
	.byte	0                       @ EOM(2)
	.byte	10                      @ Abbreviation Code
	.byte	4                       @ DW_TAG_enumeration_type
	.byte	1                       @ DW_CHILDREN_yes
	.byte	73                      @ DW_AT_type
	.byte	19                      @ DW_FORM_ref4
	.byte	11                      @ DW_AT_byte_size
	.byte	11                      @ DW_FORM_data1
	.byte	58                      @ DW_AT_decl_file
	.byte	11                      @ DW_FORM_data1
	.byte	59                      @ DW_AT_decl_line
	.byte	11                      @ DW_FORM_data1
	.byte	0                       @ EOM(1)
	.byte	0                       @ EOM(2)
	.byte	11                      @ Abbreviation Code
	.byte	40                      @ DW_TAG_enumerator
	.byte	0                       @ DW_CHILDREN_no
	.byte	3                       @ DW_AT_name
	.byte	14                      @ DW_FORM_strp
	.byte	28                      @ DW_AT_const_value
	.byte	15                      @ DW_FORM_udata
	.byte	0                       @ EOM(1)
	.byte	0                       @ EOM(2)
	.byte	12                      @ Abbreviation Code
	.byte	15                      @ DW_TAG_pointer_type
	.byte	0                       @ DW_CHILDREN_no
	.byte	73                      @ DW_AT_type
	.byte	19                      @ DW_FORM_ref4
	.byte	0                       @ EOM(1)
	.byte	0                       @ EOM(2)
	.byte	13                      @ Abbreviation Code
	.byte	22                      @ DW_TAG_typedef
	.byte	0                       @ DW_CHILDREN_no
	.byte	73                      @ DW_AT_type
	.byte	19                      @ DW_FORM_ref4
	.byte	3                       @ DW_AT_name
	.byte	14                      @ DW_FORM_strp
	.byte	58                      @ DW_AT_decl_file
	.byte	11                      @ DW_FORM_data1
	.byte	59                      @ DW_AT_decl_line
	.byte	5                       @ DW_FORM_data2
	.byte	0                       @ EOM(1)
	.byte	0                       @ EOM(2)
	.byte	14                      @ Abbreviation Code
	.byte	19                      @ DW_TAG_structure_type
	.byte	1                       @ DW_CHILDREN_yes
	.byte	11                      @ DW_AT_byte_size
	.byte	11                      @ DW_FORM_data1
	.byte	58                      @ DW_AT_decl_file
	.byte	11                      @ DW_FORM_data1
	.byte	59                      @ DW_AT_decl_line
	.byte	5                       @ DW_FORM_data2
	.byte	0                       @ EOM(1)
	.byte	0                       @ EOM(2)
	.byte	15                      @ Abbreviation Code
	.byte	13                      @ DW_TAG_member
	.byte	0                       @ DW_CHILDREN_no
	.byte	3                       @ DW_AT_name
	.byte	14                      @ DW_FORM_strp
	.byte	73                      @ DW_AT_type
	.byte	19                      @ DW_FORM_ref4
	.byte	58                      @ DW_AT_decl_file
	.byte	11                      @ DW_FORM_data1
	.byte	59                      @ DW_AT_decl_line
	.byte	5                       @ DW_FORM_data2
	.byte	56                      @ DW_AT_data_member_location
	.byte	11                      @ DW_FORM_data1
	.byte	0                       @ EOM(1)
	.byte	0                       @ EOM(2)
	.byte	16                      @ Abbreviation Code
	.byte	1                       @ DW_TAG_array_type
	.byte	1                       @ DW_CHILDREN_yes
	.byte	73                      @ DW_AT_type
	.byte	19                      @ DW_FORM_ref4
	.byte	0                       @ EOM(1)
	.byte	0                       @ EOM(2)
	.byte	17                      @ Abbreviation Code
	.byte	33                      @ DW_TAG_subrange_type
	.byte	0                       @ DW_CHILDREN_no
	.byte	73                      @ DW_AT_type
	.byte	19                      @ DW_FORM_ref4
	.byte	55                      @ DW_AT_count
	.byte	11                      @ DW_FORM_data1
	.byte	0                       @ EOM(1)
	.byte	0                       @ EOM(2)
	.byte	18                      @ Abbreviation Code
	.byte	36                      @ DW_TAG_base_type
	.byte	0                       @ DW_CHILDREN_no
	.byte	3                       @ DW_AT_name
	.byte	14                      @ DW_FORM_strp
	.byte	11                      @ DW_AT_byte_size
	.byte	11                      @ DW_FORM_data1
	.byte	62                      @ DW_AT_encoding
	.byte	11                      @ DW_FORM_data1
	.byte	0                       @ EOM(1)
	.byte	0                       @ EOM(2)
	.byte	19                      @ Abbreviation Code
	.byte	52                      @ DW_TAG_variable
	.byte	0                       @ DW_CHILDREN_no
	.byte	2                       @ DW_AT_location
	.byte	6                       @ DW_FORM_data4
	.byte	3                       @ DW_AT_name
	.byte	14                      @ DW_FORM_strp
	.byte	58                      @ DW_AT_decl_file
	.byte	11                      @ DW_FORM_data1
	.byte	59                      @ DW_AT_decl_line
	.byte	11                      @ DW_FORM_data1
	.byte	73                      @ DW_AT_type
	.byte	19                      @ DW_FORM_ref4
	.byte	0                       @ EOM(1)
	.byte	0                       @ EOM(2)
	.byte	20                      @ Abbreviation Code
	.byte	11                      @ DW_TAG_lexical_block
	.byte	1                       @ DW_CHILDREN_yes
	.byte	17                      @ DW_AT_low_pc
	.byte	1                       @ DW_FORM_addr
	.byte	18                      @ DW_AT_high_pc
	.byte	1                       @ DW_FORM_addr
	.byte	0                       @ EOM(1)
	.byte	0                       @ EOM(2)
	.byte	21                      @ Abbreviation Code
	.byte	11                      @ DW_TAG_lexical_block
	.byte	1                       @ DW_CHILDREN_yes
	.byte	85                      @ DW_AT_ranges
	.byte	6                       @ DW_FORM_data4
	.byte	0                       @ EOM(1)
	.byte	0                       @ EOM(2)
	.byte	0                       @ EOM(3)
	.section	.debug_info,"",%progbits
.Lcu_begin0:
	.long	1201                    @ Length of Unit
	.short	3                       @ DWARF version number
	.long	.debug_abbrev           @ Offset Into Abbrev. Section
	.byte	4                       @ Address Size (in bytes)
	.byte	1                       @ Abbrev [1] 0xb:0x4aa DW_TAG_compile_unit
	.long	.Linfo_string0          @ DW_AT_producer
	.short	12                      @ DW_AT_language
	.long	.Linfo_string1          @ DW_AT_name
	.long	.Lline_table_start0     @ DW_AT_stmt_list
	.long	.Linfo_string2          @ DW_AT_comp_dir
	.byte	1                       @ DW_AT_GNU_pubnames
	.long	0                       @ DW_AT_low_pc
	.long	.Ldebug_ranges1         @ DW_AT_ranges
	.byte	2                       @ Abbrev [2] 0x27:0x4b DW_TAG_subprogram
	.long	.Lfunc_begin1           @ DW_AT_low_pc
	.long	.Lfunc_end1             @ DW_AT_high_pc
	.byte	1                       @ DW_AT_frame_base
	.byte	93
	.long	.Linfo_string76         @ DW_AT_name
	.byte	2                       @ DW_AT_decl_file
	.byte	101                     @ DW_AT_decl_line
	.byte	1                       @ DW_AT_prototyped
	.byte	1                       @ DW_AT_external
	.byte	3                       @ Abbrev [3] 0x3a:0x11 DW_TAG_variable
	.long	.Linfo_string3          @ DW_AT_name
	.long	114                     @ DW_AT_type
	.byte	2                       @ DW_AT_decl_file
	.byte	103                     @ DW_AT_decl_line
	.byte	5                       @ DW_AT_location
	.byte	3
	.long	.L_MergedGlobals.1
	.byte	3                       @ Abbrev [3] 0x4b:0x13 DW_TAG_variable
	.long	.Linfo_string6          @ DW_AT_name
	.long	114                     @ DW_AT_type
	.byte	2                       @ DW_AT_decl_file
	.byte	104                     @ DW_AT_decl_line
	.byte	7                       @ DW_AT_location
	.byte	3
	.long	.L_MergedGlobals.1
	.byte	35
	.byte	1
	.byte	3                       @ Abbrev [3] 0x5e:0x13 DW_TAG_variable
	.long	.Linfo_string7          @ DW_AT_name
	.long	114                     @ DW_AT_type
	.byte	2                       @ DW_AT_decl_file
	.byte	105                     @ DW_AT_decl_line
	.byte	7                       @ DW_AT_location
	.byte	3
	.long	.L_MergedGlobals.1
	.byte	35
	.byte	2
	.byte	0                       @ End Of Children Mark
	.byte	4                       @ Abbrev [4] 0x72:0xb DW_TAG_typedef
	.long	125                     @ DW_AT_type
	.long	.Linfo_string5          @ DW_AT_name
	.byte	1                       @ DW_AT_decl_file
	.byte	62                      @ DW_AT_decl_line
	.byte	5                       @ Abbrev [5] 0x7d:0x7 DW_TAG_base_type
	.long	.Linfo_string4          @ DW_AT_name
	.byte	8                       @ DW_AT_encoding
	.byte	1                       @ DW_AT_byte_size
	.byte	6                       @ Abbrev [6] 0x84:0x12 DW_TAG_variable
	.long	.Linfo_string8          @ DW_AT_name
	.long	150                     @ DW_AT_type
	.byte	1                       @ DW_AT_external
	.byte	2                       @ DW_AT_decl_file
	.byte	25                      @ DW_AT_decl_line
	.byte	5                       @ DW_AT_location
	.byte	3
	.long	Thermostat_1
	.byte	4                       @ Abbrev [4] 0x96:0xb DW_TAG_typedef
	.long	161                     @ DW_AT_type
	.long	.Linfo_string21         @ DW_AT_name
	.byte	3                       @ DW_AT_decl_file
	.byte	33                      @ DW_AT_decl_line
	.byte	7                       @ Abbrev [7] 0xa1:0x7d DW_TAG_structure_type
	.byte	12                      @ DW_AT_byte_size
	.byte	3                       @ DW_AT_decl_file
	.byte	20                      @ DW_AT_decl_line
	.byte	8                       @ Abbrev [8] 0xa5:0xc DW_TAG_member
	.long	.Linfo_string9          @ DW_AT_name
	.long	114                     @ DW_AT_type
	.byte	3                       @ DW_AT_decl_file
	.byte	22                      @ DW_AT_decl_line
	.byte	0                       @ DW_AT_data_member_location
	.byte	8                       @ Abbrev [8] 0xb1:0xc DW_TAG_member
	.long	.Linfo_string10         @ DW_AT_name
	.long	114                     @ DW_AT_type
	.byte	3                       @ DW_AT_decl_file
	.byte	23                      @ DW_AT_decl_line
	.byte	1                       @ DW_AT_data_member_location
	.byte	8                       @ Abbrev [8] 0xbd:0xc DW_TAG_member
	.long	.Linfo_string11         @ DW_AT_name
	.long	114                     @ DW_AT_type
	.byte	3                       @ DW_AT_decl_file
	.byte	24                      @ DW_AT_decl_line
	.byte	2                       @ DW_AT_data_member_location
	.byte	8                       @ Abbrev [8] 0xc9:0xc DW_TAG_member
	.long	.Linfo_string12         @ DW_AT_name
	.long	114                     @ DW_AT_type
	.byte	3                       @ DW_AT_decl_file
	.byte	25                      @ DW_AT_decl_line
	.byte	3                       @ DW_AT_data_member_location
	.byte	8                       @ Abbrev [8] 0xd5:0xc DW_TAG_member
	.long	.Linfo_string13         @ DW_AT_name
	.long	286                     @ DW_AT_type
	.byte	3                       @ DW_AT_decl_file
	.byte	26                      @ DW_AT_decl_line
	.byte	4                       @ DW_AT_data_member_location
	.byte	8                       @ Abbrev [8] 0xe1:0xc DW_TAG_member
	.long	.Linfo_string16         @ DW_AT_name
	.long	286                     @ DW_AT_type
	.byte	3                       @ DW_AT_decl_file
	.byte	27                      @ DW_AT_decl_line
	.byte	6                       @ DW_AT_data_member_location
	.byte	8                       @ Abbrev [8] 0xed:0xc DW_TAG_member
	.long	.Linfo_string17         @ DW_AT_name
	.long	114                     @ DW_AT_type
	.byte	3                       @ DW_AT_decl_file
	.byte	28                      @ DW_AT_decl_line
	.byte	8                       @ DW_AT_data_member_location
	.byte	8                       @ Abbrev [8] 0xf9:0xc DW_TAG_member
	.long	.Linfo_string18         @ DW_AT_name
	.long	114                     @ DW_AT_type
	.byte	3                       @ DW_AT_decl_file
	.byte	29                      @ DW_AT_decl_line
	.byte	9                       @ DW_AT_data_member_location
	.byte	8                       @ Abbrev [8] 0x105:0xc DW_TAG_member
	.long	.Linfo_string19         @ DW_AT_name
	.long	114                     @ DW_AT_type
	.byte	3                       @ DW_AT_decl_file
	.byte	30                      @ DW_AT_decl_line
	.byte	10                      @ DW_AT_data_member_location
	.byte	8                       @ Abbrev [8] 0x111:0xc DW_TAG_member
	.long	.Linfo_string20         @ DW_AT_name
	.long	114                     @ DW_AT_type
	.byte	3                       @ DW_AT_decl_file
	.byte	31                      @ DW_AT_decl_line
	.byte	11                      @ DW_AT_data_member_location
	.byte	0                       @ End Of Children Mark
	.byte	4                       @ Abbrev [4] 0x11e:0xb DW_TAG_typedef
	.long	297                     @ DW_AT_type
	.long	.Linfo_string15         @ DW_AT_name
	.byte	1                       @ DW_AT_decl_file
	.byte	63                      @ DW_AT_decl_line
	.byte	5                       @ Abbrev [5] 0x129:0x7 DW_TAG_base_type
	.long	.Linfo_string14         @ DW_AT_name
	.byte	7                       @ DW_AT_encoding
	.byte	2                       @ DW_AT_byte_size
	.byte	6                       @ Abbrev [6] 0x130:0x12 DW_TAG_variable
	.long	.Linfo_string22         @ DW_AT_name
	.long	322                     @ DW_AT_type
	.byte	1                       @ DW_AT_external
	.byte	2                       @ DW_AT_decl_file
	.byte	34                      @ DW_AT_decl_line
	.byte	5                       @ DW_AT_location
	.byte	3
	.long	thermostat_timer
	.byte	9                       @ Abbrev [9] 0x142:0x5 DW_TAG_volatile_type
	.long	327                     @ DW_AT_type
	.byte	4                       @ Abbrev [4] 0x147:0xb DW_TAG_typedef
	.long	338                     @ DW_AT_type
	.long	.Linfo_string24         @ DW_AT_name
	.byte	1                       @ DW_AT_decl_file
	.byte	64                      @ DW_AT_decl_line
	.byte	5                       @ Abbrev [5] 0x152:0x7 DW_TAG_base_type
	.long	.Linfo_string23         @ DW_AT_name
	.byte	7                       @ DW_AT_encoding
	.byte	4                       @ DW_AT_byte_size
	.byte	6                       @ Abbrev [6] 0x159:0x14 DW_TAG_variable
	.long	.Linfo_string25         @ DW_AT_name
	.long	322                     @ DW_AT_type
	.byte	1                       @ DW_AT_external
	.byte	2                       @ DW_AT_decl_file
	.byte	35                      @ DW_AT_decl_line
	.byte	7                       @ DW_AT_location
	.byte	3
	.long	.L_MergedGlobals
	.byte	35
	.byte	4
	.byte	6                       @ Abbrev [6] 0x16d:0x14 DW_TAG_variable
	.long	.Linfo_string26         @ DW_AT_name
	.long	322                     @ DW_AT_type
	.byte	1                       @ DW_AT_external
	.byte	2                       @ DW_AT_decl_file
	.byte	36                      @ DW_AT_decl_line
	.byte	7                       @ DW_AT_location
	.byte	3
	.long	.L_MergedGlobals
	.byte	35
	.byte	8
	.byte	6                       @ Abbrev [6] 0x181:0x12 DW_TAG_variable
	.long	.Linfo_string27         @ DW_AT_name
	.long	327                     @ DW_AT_type
	.byte	1                       @ DW_AT_external
	.byte	2                       @ DW_AT_decl_file
	.byte	37                      @ DW_AT_decl_line
	.byte	5                       @ DW_AT_location
	.byte	3
	.long	.L_MergedGlobals
	.byte	10                      @ Abbrev [10] 0x193:0x15 DW_TAG_enumeration_type
	.long	125                     @ DW_AT_type
	.byte	1                       @ DW_AT_byte_size
	.byte	4                       @ DW_AT_decl_file
	.byte	84                      @ DW_AT_decl_line
	.byte	11                      @ Abbrev [11] 0x19b:0x6 DW_TAG_enumerator
	.long	.Linfo_string28         @ DW_AT_name
	.byte	0                       @ DW_AT_const_value
	.byte	11                      @ Abbrev [11] 0x1a1:0x6 DW_TAG_enumerator
	.long	.Linfo_string29         @ DW_AT_name
	.byte	1                       @ DW_AT_const_value
	.byte	0                       @ End Of Children Mark
	.byte	12                      @ Abbrev [12] 0x1a8:0x5 DW_TAG_pointer_type
	.long	429                     @ DW_AT_type
	.byte	13                      @ Abbrev [13] 0x1ad:0xc DW_TAG_typedef
	.long	441                     @ DW_AT_type
	.long	.Linfo_string64         @ DW_AT_name
	.byte	5                       @ DW_AT_decl_file
	.short	755                     @ DW_AT_decl_line
	.byte	14                      @ Abbrev [14] 0x1b9:0x1b3 DW_TAG_structure_type
	.byte	148                     @ DW_AT_byte_size
	.byte	5                       @ DW_AT_decl_file
	.short	719                     @ DW_AT_decl_line
	.byte	15                      @ Abbrev [15] 0x1be:0xd DW_TAG_member
	.long	.Linfo_string30         @ DW_AT_name
	.long	322                     @ DW_AT_type
	.byte	5                       @ DW_AT_decl_file
	.short	721                     @ DW_AT_decl_line
	.byte	0                       @ DW_AT_data_member_location
	.byte	15                      @ Abbrev [15] 0x1cb:0xd DW_TAG_member
	.long	.Linfo_string31         @ DW_AT_name
	.long	322                     @ DW_AT_type
	.byte	5                       @ DW_AT_decl_file
	.short	722                     @ DW_AT_decl_line
	.byte	4                       @ DW_AT_data_member_location
	.byte	15                      @ Abbrev [15] 0x1d8:0xd DW_TAG_member
	.long	.Linfo_string32         @ DW_AT_name
	.long	322                     @ DW_AT_type
	.byte	5                       @ DW_AT_decl_file
	.short	723                     @ DW_AT_decl_line
	.byte	8                       @ DW_AT_data_member_location
	.byte	15                      @ Abbrev [15] 0x1e5:0xd DW_TAG_member
	.long	.Linfo_string33         @ DW_AT_name
	.long	322                     @ DW_AT_type
	.byte	5                       @ DW_AT_decl_file
	.short	724                     @ DW_AT_decl_line
	.byte	12                      @ DW_AT_data_member_location
	.byte	15                      @ Abbrev [15] 0x1f2:0xd DW_TAG_member
	.long	.Linfo_string34         @ DW_AT_name
	.long	322                     @ DW_AT_type
	.byte	5                       @ DW_AT_decl_file
	.short	725                     @ DW_AT_decl_line
	.byte	16                      @ DW_AT_data_member_location
	.byte	15                      @ Abbrev [15] 0x1ff:0xd DW_TAG_member
	.long	.Linfo_string35         @ DW_AT_name
	.long	322                     @ DW_AT_type
	.byte	5                       @ DW_AT_decl_file
	.short	726                     @ DW_AT_decl_line
	.byte	20                      @ DW_AT_data_member_location
	.byte	15                      @ Abbrev [15] 0x20c:0xd DW_TAG_member
	.long	.Linfo_string36         @ DW_AT_name
	.long	322                     @ DW_AT_type
	.byte	5                       @ DW_AT_decl_file
	.short	727                     @ DW_AT_decl_line
	.byte	24                      @ DW_AT_data_member_location
	.byte	15                      @ Abbrev [15] 0x219:0xd DW_TAG_member
	.long	.Linfo_string37         @ DW_AT_name
	.long	327                     @ DW_AT_type
	.byte	5                       @ DW_AT_decl_file
	.short	728                     @ DW_AT_decl_line
	.byte	28                      @ DW_AT_data_member_location
	.byte	15                      @ Abbrev [15] 0x226:0xd DW_TAG_member
	.long	.Linfo_string38         @ DW_AT_name
	.long	322                     @ DW_AT_type
	.byte	5                       @ DW_AT_decl_file
	.short	729                     @ DW_AT_decl_line
	.byte	32                      @ DW_AT_data_member_location
	.byte	15                      @ Abbrev [15] 0x233:0xd DW_TAG_member
	.long	.Linfo_string39         @ DW_AT_name
	.long	322                     @ DW_AT_type
	.byte	5                       @ DW_AT_decl_file
	.short	730                     @ DW_AT_decl_line
	.byte	36                      @ DW_AT_data_member_location
	.byte	15                      @ Abbrev [15] 0x240:0xd DW_TAG_member
	.long	.Linfo_string40         @ DW_AT_name
	.long	876                     @ DW_AT_type
	.byte	5                       @ DW_AT_decl_file
	.short	731                     @ DW_AT_decl_line
	.byte	40                      @ DW_AT_data_member_location
	.byte	15                      @ Abbrev [15] 0x24d:0xd DW_TAG_member
	.long	.Linfo_string42         @ DW_AT_name
	.long	322                     @ DW_AT_type
	.byte	5                       @ DW_AT_decl_file
	.short	732                     @ DW_AT_decl_line
	.byte	48                      @ DW_AT_data_member_location
	.byte	15                      @ Abbrev [15] 0x25a:0xd DW_TAG_member
	.long	.Linfo_string43         @ DW_AT_name
	.long	322                     @ DW_AT_type
	.byte	5                       @ DW_AT_decl_file
	.short	733                     @ DW_AT_decl_line
	.byte	52                      @ DW_AT_data_member_location
	.byte	15                      @ Abbrev [15] 0x267:0xd DW_TAG_member
	.long	.Linfo_string44         @ DW_AT_name
	.long	322                     @ DW_AT_type
	.byte	5                       @ DW_AT_decl_file
	.short	734                     @ DW_AT_decl_line
	.byte	56                      @ DW_AT_data_member_location
	.byte	15                      @ Abbrev [15] 0x274:0xd DW_TAG_member
	.long	.Linfo_string45         @ DW_AT_name
	.long	327                     @ DW_AT_type
	.byte	5                       @ DW_AT_decl_file
	.short	735                     @ DW_AT_decl_line
	.byte	60                      @ DW_AT_data_member_location
	.byte	15                      @ Abbrev [15] 0x281:0xd DW_TAG_member
	.long	.Linfo_string46         @ DW_AT_name
	.long	322                     @ DW_AT_type
	.byte	5                       @ DW_AT_decl_file
	.short	736                     @ DW_AT_decl_line
	.byte	64                      @ DW_AT_data_member_location
	.byte	15                      @ Abbrev [15] 0x28e:0xd DW_TAG_member
	.long	.Linfo_string47         @ DW_AT_name
	.long	322                     @ DW_AT_type
	.byte	5                       @ DW_AT_decl_file
	.short	737                     @ DW_AT_decl_line
	.byte	68                      @ DW_AT_data_member_location
	.byte	15                      @ Abbrev [15] 0x29b:0xd DW_TAG_member
	.long	.Linfo_string48         @ DW_AT_name
	.long	876                     @ DW_AT_type
	.byte	5                       @ DW_AT_decl_file
	.short	738                     @ DW_AT_decl_line
	.byte	72                      @ DW_AT_data_member_location
	.byte	15                      @ Abbrev [15] 0x2a8:0xd DW_TAG_member
	.long	.Linfo_string49         @ DW_AT_name
	.long	322                     @ DW_AT_type
	.byte	5                       @ DW_AT_decl_file
	.short	739                     @ DW_AT_decl_line
	.byte	80                      @ DW_AT_data_member_location
	.byte	15                      @ Abbrev [15] 0x2b5:0xd DW_TAG_member
	.long	.Linfo_string50         @ DW_AT_name
	.long	322                     @ DW_AT_type
	.byte	5                       @ DW_AT_decl_file
	.short	740                     @ DW_AT_decl_line
	.byte	84                      @ DW_AT_data_member_location
	.byte	15                      @ Abbrev [15] 0x2c2:0xd DW_TAG_member
	.long	.Linfo_string51         @ DW_AT_name
	.long	322                     @ DW_AT_type
	.byte	5                       @ DW_AT_decl_file
	.short	741                     @ DW_AT_decl_line
	.byte	88                      @ DW_AT_data_member_location
	.byte	15                      @ Abbrev [15] 0x2cf:0xd DW_TAG_member
	.long	.Linfo_string52         @ DW_AT_name
	.long	327                     @ DW_AT_type
	.byte	5                       @ DW_AT_decl_file
	.short	742                     @ DW_AT_decl_line
	.byte	92                      @ DW_AT_data_member_location
	.byte	15                      @ Abbrev [15] 0x2dc:0xd DW_TAG_member
	.long	.Linfo_string53         @ DW_AT_name
	.long	322                     @ DW_AT_type
	.byte	5                       @ DW_AT_decl_file
	.short	743                     @ DW_AT_decl_line
	.byte	96                      @ DW_AT_data_member_location
	.byte	15                      @ Abbrev [15] 0x2e9:0xd DW_TAG_member
	.long	.Linfo_string54         @ DW_AT_name
	.long	322                     @ DW_AT_type
	.byte	5                       @ DW_AT_decl_file
	.short	744                     @ DW_AT_decl_line
	.byte	100                     @ DW_AT_data_member_location
	.byte	15                      @ Abbrev [15] 0x2f6:0xd DW_TAG_member
	.long	.Linfo_string55         @ DW_AT_name
	.long	876                     @ DW_AT_type
	.byte	5                       @ DW_AT_decl_file
	.short	745                     @ DW_AT_decl_line
	.byte	104                     @ DW_AT_data_member_location
	.byte	15                      @ Abbrev [15] 0x303:0xd DW_TAG_member
	.long	.Linfo_string56         @ DW_AT_name
	.long	322                     @ DW_AT_type
	.byte	5                       @ DW_AT_decl_file
	.short	746                     @ DW_AT_decl_line
	.byte	112                     @ DW_AT_data_member_location
	.byte	15                      @ Abbrev [15] 0x310:0xd DW_TAG_member
	.long	.Linfo_string57         @ DW_AT_name
	.long	322                     @ DW_AT_type
	.byte	5                       @ DW_AT_decl_file
	.short	747                     @ DW_AT_decl_line
	.byte	116                     @ DW_AT_data_member_location
	.byte	15                      @ Abbrev [15] 0x31d:0xd DW_TAG_member
	.long	.Linfo_string58         @ DW_AT_name
	.long	876                     @ DW_AT_type
	.byte	5                       @ DW_AT_decl_file
	.short	748                     @ DW_AT_decl_line
	.byte	120                     @ DW_AT_data_member_location
	.byte	15                      @ Abbrev [15] 0x32a:0xd DW_TAG_member
	.long	.Linfo_string59         @ DW_AT_name
	.long	322                     @ DW_AT_type
	.byte	5                       @ DW_AT_decl_file
	.short	749                     @ DW_AT_decl_line
	.byte	128                     @ DW_AT_data_member_location
	.byte	15                      @ Abbrev [15] 0x337:0xd DW_TAG_member
	.long	.Linfo_string60         @ DW_AT_name
	.long	322                     @ DW_AT_type
	.byte	5                       @ DW_AT_decl_file
	.short	750                     @ DW_AT_decl_line
	.byte	132                     @ DW_AT_data_member_location
	.byte	15                      @ Abbrev [15] 0x344:0xd DW_TAG_member
	.long	.Linfo_string61         @ DW_AT_name
	.long	322                     @ DW_AT_type
	.byte	5                       @ DW_AT_decl_file
	.short	751                     @ DW_AT_decl_line
	.byte	136                     @ DW_AT_data_member_location
	.byte	15                      @ Abbrev [15] 0x351:0xd DW_TAG_member
	.long	.Linfo_string62         @ DW_AT_name
	.long	322                     @ DW_AT_type
	.byte	5                       @ DW_AT_decl_file
	.short	752                     @ DW_AT_decl_line
	.byte	140                     @ DW_AT_data_member_location
	.byte	15                      @ Abbrev [15] 0x35e:0xd DW_TAG_member
	.long	.Linfo_string63         @ DW_AT_name
	.long	322                     @ DW_AT_type
	.byte	5                       @ DW_AT_decl_file
	.short	753                     @ DW_AT_decl_line
	.byte	144                     @ DW_AT_data_member_location
	.byte	0                       @ End Of Children Mark
	.byte	16                      @ Abbrev [16] 0x36c:0xc DW_TAG_array_type
	.long	327                     @ DW_AT_type
	.byte	17                      @ Abbrev [17] 0x371:0x6 DW_TAG_subrange_type
	.long	888                     @ DW_AT_type
	.byte	2                       @ DW_AT_count
	.byte	0                       @ End Of Children Mark
	.byte	18                      @ Abbrev [18] 0x378:0x7 DW_TAG_base_type
	.long	.Linfo_string41         @ DW_AT_name
	.byte	8                       @ DW_AT_byte_size
	.byte	7                       @ DW_AT_encoding
	.byte	12                      @ Abbrev [12] 0x37f:0x5 DW_TAG_pointer_type
	.long	900                     @ DW_AT_type
	.byte	13                      @ Abbrev [13] 0x384:0xc DW_TAG_typedef
	.long	912                     @ DW_AT_type
	.long	.Linfo_string74         @ DW_AT_name
	.byte	5                       @ DW_AT_decl_file
	.short	606                     @ DW_AT_decl_line
	.byte	14                      @ Abbrev [14] 0x390:0x7b DW_TAG_structure_type
	.byte	40                      @ DW_AT_byte_size
	.byte	5                       @ DW_AT_decl_file
	.short	595                     @ DW_AT_decl_line
	.byte	15                      @ Abbrev [15] 0x395:0xd DW_TAG_member
	.long	.Linfo_string65         @ DW_AT_name
	.long	322                     @ DW_AT_type
	.byte	5                       @ DW_AT_decl_file
	.short	597                     @ DW_AT_decl_line
	.byte	0                       @ DW_AT_data_member_location
	.byte	15                      @ Abbrev [15] 0x3a2:0xd DW_TAG_member
	.long	.Linfo_string66         @ DW_AT_name
	.long	322                     @ DW_AT_type
	.byte	5                       @ DW_AT_decl_file
	.short	598                     @ DW_AT_decl_line
	.byte	4                       @ DW_AT_data_member_location
	.byte	15                      @ Abbrev [15] 0x3af:0xd DW_TAG_member
	.long	.Linfo_string67         @ DW_AT_name
	.long	322                     @ DW_AT_type
	.byte	5                       @ DW_AT_decl_file
	.short	599                     @ DW_AT_decl_line
	.byte	8                       @ DW_AT_data_member_location
	.byte	15                      @ Abbrev [15] 0x3bc:0xd DW_TAG_member
	.long	.Linfo_string68         @ DW_AT_name
	.long	322                     @ DW_AT_type
	.byte	5                       @ DW_AT_decl_file
	.short	600                     @ DW_AT_decl_line
	.byte	12                      @ DW_AT_data_member_location
	.byte	15                      @ Abbrev [15] 0x3c9:0xd DW_TAG_member
	.long	.Linfo_string69         @ DW_AT_name
	.long	322                     @ DW_AT_type
	.byte	5                       @ DW_AT_decl_file
	.short	601                     @ DW_AT_decl_line
	.byte	16                      @ DW_AT_data_member_location
	.byte	15                      @ Abbrev [15] 0x3d6:0xd DW_TAG_member
	.long	.Linfo_string70         @ DW_AT_name
	.long	322                     @ DW_AT_type
	.byte	5                       @ DW_AT_decl_file
	.short	602                     @ DW_AT_decl_line
	.byte	20                      @ DW_AT_data_member_location
	.byte	15                      @ Abbrev [15] 0x3e3:0xd DW_TAG_member
	.long	.Linfo_string71         @ DW_AT_name
	.long	322                     @ DW_AT_type
	.byte	5                       @ DW_AT_decl_file
	.short	603                     @ DW_AT_decl_line
	.byte	24                      @ DW_AT_data_member_location
	.byte	15                      @ Abbrev [15] 0x3f0:0xd DW_TAG_member
	.long	.Linfo_string72         @ DW_AT_name
	.long	322                     @ DW_AT_type
	.byte	5                       @ DW_AT_decl_file
	.short	604                     @ DW_AT_decl_line
	.byte	28                      @ DW_AT_data_member_location
	.byte	15                      @ Abbrev [15] 0x3fd:0xd DW_TAG_member
	.long	.Linfo_string73         @ DW_AT_name
	.long	1035                    @ DW_AT_type
	.byte	5                       @ DW_AT_decl_file
	.short	605                     @ DW_AT_decl_line
	.byte	32                      @ DW_AT_data_member_location
	.byte	0                       @ End Of Children Mark
	.byte	16                      @ Abbrev [16] 0x40b:0xc DW_TAG_array_type
	.long	322                     @ DW_AT_type
	.byte	17                      @ Abbrev [17] 0x410:0x6 DW_TAG_subrange_type
	.long	888                     @ DW_AT_type
	.byte	2                       @ DW_AT_count
	.byte	0                       @ End Of Children Mark
	.byte	2                       @ Abbrev [2] 0x417:0x51 DW_TAG_subprogram
	.long	.Lfunc_begin0           @ DW_AT_low_pc
	.long	.Lfunc_end0             @ DW_AT_high_pc
	.byte	1                       @ DW_AT_frame_base
	.byte	93
	.long	.Linfo_string75         @ DW_AT_name
	.byte	2                       @ DW_AT_decl_file
	.byte	66                      @ DW_AT_decl_line
	.byte	1                       @ DW_AT_prototyped
	.byte	1                       @ DW_AT_external
	.byte	19                      @ Abbrev [19] 0x42a:0xf DW_TAG_variable
	.long	.Ldebug_loc2            @ DW_AT_location
	.long	.Linfo_string78         @ DW_AT_name
	.byte	2                       @ DW_AT_decl_file
	.byte	68                      @ DW_AT_decl_line
	.long	1128                    @ DW_AT_type
	.byte	20                      @ Abbrev [20] 0x439:0x19 DW_TAG_lexical_block
	.long	.Ltmp1                  @ DW_AT_low_pc
	.long	.Ltmp3                  @ DW_AT_high_pc
	.byte	19                      @ Abbrev [19] 0x442:0xf DW_TAG_variable
	.long	.Ldebug_loc0            @ DW_AT_location
	.long	.Linfo_string77         @ DW_AT_name
	.byte	2                       @ DW_AT_decl_file
	.byte	70                      @ DW_AT_decl_line
	.long	322                     @ DW_AT_type
	.byte	0                       @ End Of Children Mark
	.byte	21                      @ Abbrev [21] 0x452:0x15 DW_TAG_lexical_block
	.long	.Ldebug_ranges0         @ DW_AT_ranges
	.byte	19                      @ Abbrev [19] 0x457:0xf DW_TAG_variable
	.long	.Ldebug_loc1            @ DW_AT_location
	.long	.Linfo_string77         @ DW_AT_name
	.byte	2                       @ DW_AT_decl_file
	.byte	71                      @ DW_AT_decl_line
	.long	322                     @ DW_AT_type
	.byte	0                       @ End Of Children Mark
	.byte	0                       @ End Of Children Mark
	.byte	4                       @ Abbrev [4] 0x468:0xb DW_TAG_typedef
	.long	1139                    @ DW_AT_type
	.long	.Linfo_string84         @ DW_AT_name
	.byte	4                       @ DW_AT_decl_file
	.byte	79                      @ DW_AT_decl_line
	.byte	7                       @ Abbrev [7] 0x473:0x41 DW_TAG_structure_type
	.byte	20                      @ DW_AT_byte_size
	.byte	4                       @ DW_AT_decl_file
	.byte	63                      @ DW_AT_decl_line
	.byte	8                       @ Abbrev [8] 0x477:0xc DW_TAG_member
	.long	.Linfo_string79         @ DW_AT_name
	.long	327                     @ DW_AT_type
	.byte	4                       @ DW_AT_decl_file
	.byte	65                      @ DW_AT_decl_line
	.byte	0                       @ DW_AT_data_member_location
	.byte	8                       @ Abbrev [8] 0x483:0xc DW_TAG_member
	.long	.Linfo_string80         @ DW_AT_name
	.long	327                     @ DW_AT_type
	.byte	4                       @ DW_AT_decl_file
	.byte	68                      @ DW_AT_decl_line
	.byte	4                       @ DW_AT_data_member_location
	.byte	8                       @ Abbrev [8] 0x48f:0xc DW_TAG_member
	.long	.Linfo_string81         @ DW_AT_name
	.long	327                     @ DW_AT_type
	.byte	4                       @ DW_AT_decl_file
	.byte	71                      @ DW_AT_decl_line
	.byte	8                       @ DW_AT_data_member_location
	.byte	8                       @ Abbrev [8] 0x49b:0xc DW_TAG_member
	.long	.Linfo_string82         @ DW_AT_name
	.long	327                     @ DW_AT_type
	.byte	4                       @ DW_AT_decl_file
	.byte	74                      @ DW_AT_decl_line
	.byte	12                      @ DW_AT_data_member_location
	.byte	8                       @ Abbrev [8] 0x4a7:0xc DW_TAG_member
	.long	.Linfo_string83         @ DW_AT_name
	.long	327                     @ DW_AT_type
	.byte	4                       @ DW_AT_decl_file
	.byte	77                      @ DW_AT_decl_line
	.byte	16                      @ DW_AT_data_member_location
	.byte	0                       @ End Of Children Mark
	.byte	0                       @ End Of Children Mark
	.section	.debug_ranges,"",%progbits
.Ldebug_ranges0:
	.long	.Ltmp3
	.long	.Ltmp5
	.long	.Ltmp6
	.long	.Ltmp8
	.long	0
	.long	0
.Ldebug_ranges1:
	.long	.Lfunc_begin0
	.long	.Lfunc_end0
	.long	.Lfunc_begin1
	.long	.Lfunc_end1
	.long	0
	.long	0
	.section	.debug_macinfo,"",%progbits
.Lcu_macro_begin0:
	.byte	0                       @ End Of Macro List Mark
	.section	.debug_pubnames,"",%progbits
	.long	.LpubNames_end0-.LpubNames_begin0 @ Length of Public Names Info
.LpubNames_begin0:
	.short	2                       @ DWARF Version
	.long	.Lcu_begin0             @ Offset of Compilation Unit Info
	.long	1205                    @ Compilation Unit Length
	.long	39                      @ DIE offset
	.asciz	"THERMOSTAT_Service"    @ External Name
	.long	75                      @ DIE offset
	.asciz	"old_fan_speed"         @ External Name
	.long	58                      @ DIE offset
	.asciz	"old_actual_temperature" @ External Name
	.long	385                     @ DIE offset
	.asciz	"thermostat_flags"      @ External Name
	.long	365                     @ DIE offset
	.asciz	"thermostat_valve_timer" @ External Name
	.long	94                      @ DIE offset
	.asciz	"fan_pcnt"              @ External Name
	.long	132                     @ DIE offset
	.asciz	"Thermostat_1"          @ External Name
	.long	304                     @ DIE offset
	.asciz	"thermostat_timer"      @ External Name
	.long	1047                    @ DIE offset
	.asciz	"THERMOSTAT_Init"       @ External Name
	.long	345                     @ DIE offset
	.asciz	"thermostat_fan_timer"  @ External Name
	.long	0                       @ End Mark
.LpubNames_end0:
	.section	.debug_pubtypes,"",%progbits
	.long	.LpubTypes_end0-.LpubTypes_begin0 @ Length of Public Types Info
.LpubTypes_begin0:
	.short	2                       @ DWARF Version
	.long	.Lcu_begin0             @ Offset of Compilation Unit Info
	.long	1205                    @ Compilation Unit Length
	.long	429                     @ DIE offset
	.asciz	"RCC_TypeDef"           @ External Name
	.long	1128                    @ DIE offset
	.asciz	"GPIO_InitTypeDef"      @ External Name
	.long	327                     @ DIE offset
	.asciz	"uint32_t"              @ External Name
	.long	338                     @ DIE offset
	.asciz	"unsigned int"          @ External Name
	.long	286                     @ DIE offset
	.asciz	"uint16_t"              @ External Name
	.long	114                     @ DIE offset
	.asciz	"uint8_t"               @ External Name
	.long	125                     @ DIE offset
	.asciz	"unsigned char"         @ External Name
	.long	297                     @ DIE offset
	.asciz	"unsigned short"        @ External Name
	.long	150                     @ DIE offset
	.asciz	"THERMOSTAT_TypeDef"    @ External Name
	.long	900                     @ DIE offset
	.asciz	"GPIO_TypeDef"          @ External Name
	.long	0                       @ End Mark
.LpubTypes_end0:

	.globl	thermostat_flags
thermostat_flags = .L_MergedGlobals
	.size	thermostat_flags, 4
	.globl	thermostat_fan_timer
thermostat_fan_timer = .L_MergedGlobals+4
	.size	thermostat_fan_timer, 4
	.globl	thermostat_valve_timer
thermostat_valve_timer = .L_MergedGlobals+8
	.size	thermostat_valve_timer, 4
THERMOSTAT_Service.old_actual_temperature = .L_MergedGlobals.1
	.size	THERMOSTAT_Service.old_actual_temperature, 1
THERMOSTAT_Service.old_fan_speed = .L_MergedGlobals.1+1
	.size	THERMOSTAT_Service.old_fan_speed, 1
THERMOSTAT_Service.fan_pcnt = .L_MergedGlobals.1+2
	.size	THERMOSTAT_Service.fan_pcnt, 1
	.ident	"Component: ARM Compiler 6.10.1 Tool: armclang [5d143200]"
	.section	".note.GNU-stack","",%progbits
	.eabi_attribute	30, 4	@ Tag_ABI_optimization_goals
	.ARM_attribute	16, 1	@ Tag_AV_eba
	.section	.debug_line,"",%progbits
.Lline_table_start0:
